/*--------------------------------*- C++ -*----------------------------------*\
| =========                 |                                                 |
| \\      /  F ield         | OpenFOAM: The Open Source CFD Toolbox           |
|  \\    /   O peration     | Version:  2.4.0                                 |
|   \\  /    A nd           | Web:      www.OpenFOAM.org                      |
|    \\/     M anipulation  |                                                 |
\*---------------------------------------------------------------------------*/
FoamFile
{
    version     2.0;
    format      ascii;
    class       polyBoundaryMesh;
    location    "constant/polyMesh";
    object      boundary;
}
// * * * * * * * * * * * * * * * * * * * * * * * * * * * * * * * * * * * * * //

4
(
    inlet
    {
        type            patch;
        nFaces          50;
        startFace       54600;
    }
    outlet
    {
        type            patch;
        nFaces          50;
        startFace       54650;
    }
    walls
    {
        type            wall;
        inGroups        1(wall);
        nFaces          700;
        startFace       54700;
    }
    frontAndBack
    {
        type            empty;
        inGroups        1(empty);
        nFaces          55000;
        startFace       55400;
    }
)

// ************************************************************************* //
