/*--------------------------------*- C++ -*----------------------------------*\
| =========                 |                                                 |
| \\      /  F ield         | OpenFOAM: The Open Source CFD Toolbox           |
|  \\    /   O peration     | Version:  2.4.0                                 |
|   \\  /    A nd           | Web:      www.OpenFOAM.org                      |
|    \\/     M anipulation  |                                                 |
\*---------------------------------------------------------------------------*/
FoamFile
{
    version     2.0;
    format      ascii;
    class       volScalarField;
    location    "0";
    object      epsilon;
}
// * * * * * * * * * * * * * * * * * * * * * * * * * * * * * * * * * * * * * //

dimensions      [0 0 -1 0 0 0 0];

internalField   uniform 20.125;

boundaryField
{
    inlet
    {
        type            fixedValue;
        value           uniform 20.125;
    }
    outlet
    {
        type            zeroGradient;
    }
    walls
    {
        type            epsilonWallFunction;
        value           uniform 20.125;
    }
    frontAndBack
    {
        type            empty;
    }
}


// ************************************************************************* //
